<?xml version="1.0" encoding="UTF-8"?>

<!-- generated on 2025-09-14 20:14:38 by Eclipse SUMO netedit Version 1.24.0
<neteditConfiguration xmlns:xsi="http://www.w3.org/2001/XMLSchema-instance" xsi:noNamespaceSchemaLocation="http://sumo.dlr.de/xsd/neteditConfiguration.xsd">

    <input>
        <sumocfg-file value="C:\Users\Shailesh\Downloads\New folder\RL.sumocfg"/>
        <additional-files value="C:\Users\Shailesh\Downloads\New folder\RL.add.xml"/>
        <route-files value="C:\Users\Shailesh\Downloads\test\test.rou.xml"/>
        <sumo-net-file value="C:\Users\Shailesh\Downloads\New folder\RL.net.xml"/>
    </input>

    <output>
        <output-file value="C:\Users\Shailesh\Downloads\New folder\RL.net.xml"/>
    </output>

    <processing>
        <offset.disable-normalization value="true"/>
    </processing>

    <junctions>
        <no-turnarounds value="true"/>
    </junctions>

    <netedit>
        <new-network value="false"/>
    </netedit>

</neteditConfiguration>
-->

<net version="1.20" junctionCornerDetail="5" limitTurnSpeed="5.50" xmlns:xsi="http://www.w3.org/2001/XMLSchema-instance" xsi:noNamespaceSchemaLocation="http://sumo.dlr.de/xsd/net_file.xsd">

    <location netOffset="0.00,0.00" convBoundary="-59.21,-23.21,68.16,65.54" origBoundary="10000000000.00,10000000000.00,-10000000000.00,-10000000000.00" projParameter="!"/>

    <edge id=":Node1_0" function="internal">
        <lane id=":Node1_0_0" index="0" speed="11.15" length="26.40" shape="-45.31,37.33 -52.38,36.34 -57.66,33.36 -61.14,28.41 -62.82,21.47"/>
        <lane id=":Node1_0_1" index="1" speed="10.13" length="21.60" shape="-45.31,34.13 -51.10,33.32 -55.41,30.88 -58.26,26.83 -59.64,21.15"/>
        <lane id=":Node1_0_2" index="2" speed="8.99" length="16.80" shape="-45.31,30.93 -49.81,30.30 -53.17,28.41 -55.38,25.25 -56.45,20.84"/>
    </edge>
    <edge id=":Node1_3" function="internal">
        <lane id=":Node1_3_0" index="0" speed="3.91" length="2.40" shape="-46.90,19.89 -46.75,20.52 -46.43,20.97 -45.95,21.24 -45.31,21.33"/>
        <lane id=":Node1_3_1" index="1" speed="6.09" length="7.20" shape="-50.09,20.20 -49.63,22.10 -48.68,23.45 -47.24,24.26 -45.31,24.53"/>
        <lane id=":Node1_3_2" index="2" speed="7.68" length="12.00" shape="-53.27,20.52 -52.50,23.67 -50.92,25.93 -48.52,27.28 -45.31,27.73"/>
    </edge>
    <edge id=":Node2_0" function="internal">
        <lane id=":Node2_0_0" index="0" speed="7.52" length="11.55" shape="1.55,44.52 0.84,41.37 -0.63,39.13 -2.87,37.78 -5.87,37.33"/>
    </edge>
    <edge id=":Node2_1" function="internal">
        <lane id=":Node2_1_0" index="0" speed="13.89" length="28.79" shape="1.55,44.52 -0.46,15.66"/>
        <lane id=":Node2_1_1" index="1" speed="13.89" length="28.79" shape="4.74,44.23 2.74,15.51"/>
        <lane id=":Node2_1_2" index="2" speed="13.89" length="28.79" shape="7.92,43.93 5.93,15.36"/>
    </edge>
    <edge id=":Node2_4" function="internal">
        <lane id=":Node2_4_0" index="0" speed="10.24" length="5.83" shape="7.92,43.93 8.23,38.11"/>
    </edge>
    <edge id=":Node2_20" function="internal">
        <lane id=":Node2_20_0" index="0" speed="10.24" length="19.74" shape="8.23,38.11 8.29,36.84 10.88,31.78 15.69,28.74 22.71,27.73"/>
    </edge>
    <edge id=":Node2_5" function="internal">
        <lane id=":Node2_5_0" index="0" speed="6.32" length="9.04" shape="22.71,37.33 20.23,37.69 18.53,38.76 17.61,40.55 17.48,43.06"/>
    </edge>
    <edge id=":Node2_6" function="internal">
        <lane id=":Node2_6_0" index="0" speed="13.89" length="28.58" shape="22.71,37.33 -5.87,37.33"/>
        <lane id=":Node2_6_1" index="1" speed="13.89" length="28.58" shape="22.71,34.13 -5.87,34.13"/>
        <lane id=":Node2_6_2" index="2" speed="13.89" length="28.58" shape="22.71,30.93 -5.87,30.93"/>
    </edge>
    <edge id=":Node2_9" function="internal">
        <lane id=":Node2_9_0" index="0" speed="10.82" length="5.19" shape="22.71,30.93 17.57,30.22"/>
    </edge>
    <edge id=":Node2_21" function="internal">
        <lane id=":Node2_21_0" index="0" speed="10.82" length="20.65" shape="17.57,30.22 15.65,29.96 10.50,27.04 7.26,22.17 5.93,15.36"/>
    </edge>
    <edge id=":Node2_10" function="internal">
        <lane id=":Node2_10_0" index="0" speed="7.20" length="10.88" shape="15.52,14.90 16.09,17.72 17.47,19.72 19.68,20.93 22.71,21.33"/>
    </edge>
    <edge id=":Node2_11" function="internal">
        <lane id=":Node2_11_0" index="0" speed="13.89" length="28.36" shape="15.52,14.90 17.48,43.06"/>
        <lane id=":Node2_11_1" index="1" speed="13.89" length="28.36" shape="12.33,15.06 14.30,43.35"/>
        <lane id=":Node2_11_2" index="2" speed="13.89" length="28.36" shape="9.13,15.21 11.11,43.64"/>
    </edge>
    <edge id=":Node2_14" function="internal">
        <lane id=":Node2_14_0" index="0" speed="10.30" length="4.33" shape="9.13,15.21 8.72,19.51"/>
    </edge>
    <edge id=":Node2_22" function="internal">
        <lane id=":Node2_22_0" index="0" speed="10.30" length="20.72" shape="8.72,19.51 8.47,22.09 5.75,27.00 0.97,29.95 -5.87,30.93"/>
    </edge>
    <edge id=":Node2_15" function="internal">
        <lane id=":Node2_15_0" index="0" speed="6.41" length="9.04" shape="-5.87,21.33 -3.40,20.98 -1.68,19.91 -0.70,18.14 -0.46,15.66"/>
    </edge>
    <edge id=":Node2_16" function="internal">
        <lane id=":Node2_16_0" index="0" speed="13.89" length="28.58" shape="-5.87,21.33 22.71,21.33"/>
        <lane id=":Node2_16_1" index="1" speed="13.89" length="28.58" shape="-5.87,24.53 22.71,24.53"/>
        <lane id=":Node2_16_2" index="2" speed="13.89" length="28.58" shape="-5.87,27.73 22.71,27.73"/>
    </edge>
    <edge id=":Node2_19" function="internal">
        <lane id=":Node2_19_0" index="0" speed="11.04" length="4.96" shape="-5.87,27.73 -0.96,28.44"/>
    </edge>
    <edge id=":Node2_23" function="internal">
        <lane id=":Node2_23_0" index="0" speed="11.04" length="21.07" shape="-0.96,28.44 1.01,28.72 6.14,31.71 9.50,36.68 11.11,43.64"/>
    </edge>
    <edge id=":Node3_0" function="internal">
        <lane id=":Node3_0_0" index="0" speed="11.12" length="28.39" shape="76.15,19.72 75.05,27.42 71.76,32.93 66.25,36.23 58.55,37.33"/>
        <lane id=":Node3_0_1" index="1" speed="10.10" length="23.23" shape="72.95,19.72 72.05,26.03 69.36,30.53 64.85,33.23 58.55,34.13"/>
        <lane id=":Node3_0_2" index="2" speed="8.96" length="18.07" shape="69.75,19.72 69.05,24.63 66.95,28.13 63.45,30.23 58.55,30.93"/>
    </edge>
    <edge id=":Node3_3" function="internal">
        <lane id=":Node3_3_0" index="0" speed="3.90" length="2.58" shape="58.55,21.33 59.25,21.23 59.75,20.93 60.05,20.43 60.15,19.73"/>
        <lane id=":Node3_3_1" index="1" speed="6.08" length="7.74" shape="58.55,24.53 60.65,24.23 62.15,23.33 63.05,21.83 63.35,19.73"/>
        <lane id=":Node3_3_2" index="2" speed="7.66" length="12.91" shape="58.55,27.73 62.05,27.23 64.55,25.73 66.05,23.23 66.55,19.73"/>
    </edge>
    <edge id=":Node4_0" function="internal">
        <lane id=":Node4_0_0" index="0" speed="11.11" length="30.47" shape="-66.13,-11.87 -65.75,-20.33 -62.71,-26.37 -57.00,-30.00 -48.62,-31.21"/>
        <lane id=":Node4_0_1" index="1" speed="10.09" length="24.93" shape="-62.95,-12.18 -62.64,-19.11 -60.15,-24.05 -55.47,-27.02 -48.62,-28.01"/>
        <lane id=":Node4_0_2" index="2" speed="8.95" length="19.39" shape="-59.76,-12.50 -59.52,-17.88 -57.58,-21.73 -53.95,-24.04 -48.62,-24.81"/>
    </edge>
    <edge id=":Node4_3" function="internal">
        <lane id=":Node4_3_0" index="0" speed="3.90" length="2.77" shape="-48.62,-15.21 -49.38,-15.10 -49.90,-14.77 -50.17,-14.22 -50.21,-13.45"/>
        <lane id=":Node4_3_1" index="1" speed="6.07" length="8.31" shape="-48.62,-18.41 -50.90,-18.08 -52.46,-17.09 -53.29,-15.44 -53.39,-13.13"/>
        <lane id=":Node4_3_2" index="2" speed="7.65" length="13.85" shape="-48.62,-21.61 -52.43,-21.06 -55.02,-19.41 -56.41,-16.66 -56.58,-12.82"/>
    </edge>
    <edge id=":Node5_0" function="internal">
        <lane id=":Node5_0_0" index="0" speed="6.86" length="9.78" shape="-1.61,-8.78 -2.09,-11.59 -3.22,-13.60 -5.01,-14.80 -7.44,-15.21"/>
    </edge>
    <edge id=":Node5_1" function="internal">
        <lane id=":Node5_1_0" index="0" speed="11.30" length="30.39" shape="1.58,-8.93 2.38,-17.28 5.68,-23.24 11.48,-26.81 19.78,-28.01"/>
        <lane id=":Node5_1_1" index="1" speed="10.30" length="25.05" shape="4.78,-9.08 5.44,-15.96 8.16,-20.88 12.94,-23.82 19.78,-24.81"/>
    </edge>
    <edge id=":Node5_3" function="internal">
        <lane id=":Node5_3_0" index="0" speed="6.41" length="9.04" shape="19.78,-15.21 17.31,-14.85 15.59,-13.79 14.61,-12.02 14.37,-9.53"/>
    </edge>
    <edge id=":Node5_4" function="internal">
        <lane id=":Node5_4_0" index="0" speed="13.89" length="27.22" shape="19.78,-15.21 -7.44,-15.21"/>
        <lane id=":Node5_4_1" index="1" speed="13.89" length="27.22" shape="19.78,-18.41 -7.44,-18.41"/>
        <lane id=":Node5_4_2" index="2" speed="13.89" length="27.22" shape="19.78,-21.61 -7.44,-21.61"/>
    </edge>
    <edge id=":Node5_7" function="internal">
        <lane id=":Node5_7_0" index="0" speed="13.89" length="27.22" shape="-7.44,-31.21 19.78,-31.21"/>
        <lane id=":Node5_7_1" index="1" speed="13.89" length="27.22" shape="-7.44,-28.01 19.78,-28.01"/>
        <lane id=":Node5_7_2" index="2" speed="13.89" length="27.22" shape="-7.44,-24.81 19.78,-24.81"/>
    </edge>
    <edge id=":Node5_10" function="internal">
        <lane id=":Node5_10_0" index="0" speed="11.10" length="5.81" shape="-7.44,-24.81 -1.67,-24.10"/>
        <lane id=":Node5_10_1" index="1" speed="10.59" length="4.77" shape="-7.44,-24.81 -2.72,-24.10"/>
    </edge>
    <edge id=":Node5_12" function="internal">
        <lane id=":Node5_12_0" index="0" speed="11.10" length="21.43" shape="-1.67,-24.10 0.43,-23.84 6.16,-20.95 9.74,-16.13 11.17,-9.38"/>
        <lane id=":Node5_12_1" index="0" speed="10.59" length="19.96" shape="-2.72,-24.10 -0.97,-23.83 3.75,-20.91 6.74,-16.05 7.98,-9.23"/>
    </edge>
    <edge id=":Node6_0" function="internal">
        <lane id=":Node6_0_0" index="0" speed="3.90" length="2.58" shape="60.14,-13.61 60.04,-14.31 59.74,-14.81 59.24,-15.11 58.54,-15.21"/>
        <lane id=":Node6_0_1" index="1" speed="6.08" length="7.74" shape="63.34,-13.61 63.04,-15.71 62.13,-17.21 60.64,-18.11 58.54,-18.41"/>
        <lane id=":Node6_0_2" index="2" speed="7.66" length="12.90" shape="66.54,-13.61 66.03,-17.11 64.53,-19.61 62.03,-21.11 58.54,-21.61"/>
    </edge>
    <edge id=":Node6_3" function="internal">
        <lane id=":Node6_3_0" index="0" speed="11.12" length="28.37" shape="58.54,-31.21 66.23,-30.11 71.73,-26.81 75.03,-21.31 76.14,-13.61"/>
        <lane id=":Node6_3_1" index="1" speed="10.10" length="23.22" shape="58.54,-28.01 64.83,-27.11 69.33,-24.41 72.03,-19.91 72.94,-13.61"/>
        <lane id=":Node6_3_2" index="2" speed="8.96" length="18.06" shape="58.54,-24.81 63.43,-24.11 66.93,-22.01 69.03,-18.51 69.74,-13.61"/>
    </edge>

    <edge id="-E2" from="Node6" to="Node3" priority="-1">
        <lane id="-E2_0" index="0" speed="13.89" length="33.34" shape="76.14,-13.61 76.15,19.72"/>
        <lane id="-E2_1" index="1" speed="13.89" length="33.34" shape="72.94,-13.61 72.95,19.72"/>
        <lane id="-E2_2" index="2" speed="13.89" length="33.34" shape="69.74,-13.61 69.75,19.72"/>
    </edge>
    <edge id="-E3" from="Node5" to="Node6" priority="-1">
        <lane id="-E3_0" index="0" speed="13.89" length="38.76" shape="19.78,-31.21 58.54,-31.21"/>
        <lane id="-E3_1" index="1" speed="13.89" length="38.76" shape="19.78,-28.01 58.54,-28.01"/>
        <lane id="-E3_2" index="2" speed="13.89" length="38.76" shape="19.78,-24.81 58.54,-24.81"/>
    </edge>
    <edge id="-E4" from="Node4" to="Node5" priority="-1">
        <lane id="-E4_0" index="0" speed="13.89" length="41.17" shape="-48.62,-31.21 -7.44,-31.21"/>
        <lane id="-E4_1" index="1" speed="13.89" length="41.17" shape="-48.62,-28.01 -7.44,-28.01"/>
        <lane id="-E4_2" index="2" speed="13.89" length="41.17" shape="-48.62,-24.81 -7.44,-24.81"/>
    </edge>
    <edge id="-E5" from="Node1" to="Node4" priority="-1">
        <lane id="-E5_0" index="0" speed="13.89" length="33.50" shape="-62.82,21.47 -66.13,-11.87"/>
        <lane id="-E5_1" index="1" speed="13.89" length="33.50" shape="-59.64,21.15 -62.95,-12.18"/>
        <lane id="-E5_2" index="2" speed="13.89" length="33.50" shape="-56.45,20.84 -59.76,-12.50"/>
    </edge>
    <edge id="E2" from="Node3" to="Node6" priority="-1">
        <lane id="E2_0" index="0" speed="13.89" length="33.34" shape="60.15,19.73 60.14,-13.61"/>
        <lane id="E2_1" index="1" speed="13.89" length="33.34" shape="63.35,19.73 63.34,-13.61"/>
        <lane id="E2_2" index="2" speed="13.89" length="33.34" shape="66.55,19.73 66.54,-13.61"/>
    </edge>
    <edge id="E3" from="Node6" to="Node5" priority="-1">
        <lane id="E3_0" index="0" speed="13.89" length="38.76" shape="58.54,-15.21 19.78,-15.21"/>
        <lane id="E3_1" index="1" speed="13.89" length="38.76" shape="58.54,-18.41 19.78,-18.41"/>
        <lane id="E3_2" index="2" speed="13.89" length="38.76" shape="58.54,-21.61 19.78,-21.61"/>
    </edge>
    <edge id="E4" from="Node5" to="Node4" priority="-1">
        <lane id="E4_0" index="0" speed="13.89" length="41.17" shape="-7.44,-15.21 -48.62,-15.21"/>
        <lane id="E4_1" index="1" speed="13.89" length="41.17" shape="-7.44,-18.41 -48.62,-18.41"/>
        <lane id="E4_2" index="2" speed="13.89" length="41.17" shape="-7.44,-21.61 -48.62,-21.61"/>
    </edge>
    <edge id="E5" from="Node4" to="Node1" priority="-1">
        <lane id="E5_0" index="0" speed="13.89" length="33.50" shape="-50.21,-13.45 -46.90,19.89"/>
        <lane id="E5_1" index="1" speed="13.89" length="33.50" shape="-53.39,-13.13 -50.09,20.20"/>
        <lane id="E5_2" index="2" speed="13.89" length="33.50" shape="-56.58,-12.82 -53.27,20.52"/>
    </edge>
    <edge id="Node1_2_EB" from="Node1" to="Node2" priority="-1">
        <lane id="Node1_2_EB_0" index="0" speed="13.89" length="39.44" shape="-45.31,21.33 -5.87,21.33"/>
        <lane id="Node1_2_EB_1" index="1" speed="13.89" length="39.44" shape="-45.31,24.53 -5.87,24.53"/>
        <lane id="Node1_2_EB_2" index="2" speed="13.89" length="39.44" shape="-45.31,27.73 -5.87,27.73"/>
    </edge>
    <edge id="Node1_2_WB" from="Node2" to="Node1" priority="-1">
        <lane id="Node1_2_WB_0" index="0" speed="13.89" length="39.44" shape="-5.87,37.33 -45.31,37.33"/>
        <lane id="Node1_2_WB_1" index="1" speed="13.89" length="39.44" shape="-5.87,34.13 -45.31,34.13"/>
        <lane id="Node1_2_WB_2" index="2" speed="13.89" length="39.44" shape="-5.87,30.93 -45.31,30.93"/>
    </edge>
    <edge id="Node2_3_EB" from="Node2" to="Node3" priority="-1">
        <lane id="Node2_3_EB_0" index="0" speed="13.89" length="35.84" shape="22.71,21.33 58.55,21.33"/>
        <lane id="Node2_3_EB_1" index="1" speed="13.89" length="35.84" shape="22.71,24.53 58.55,24.53"/>
        <lane id="Node2_3_EB_2" index="2" speed="13.89" length="35.84" shape="22.71,27.73 58.55,27.73"/>
    </edge>
    <edge id="Node2_3_WB" from="Node3" to="Node2" priority="-1">
        <lane id="Node2_3_WB_0" index="0" speed="13.89" length="35.84" shape="58.55,37.33 22.71,37.33"/>
        <lane id="Node2_3_WB_1" index="1" speed="13.89" length="35.84" shape="58.55,34.13 22.71,34.13"/>
        <lane id="Node2_3_WB_2" index="2" speed="13.89" length="35.84" shape="58.55,30.93 22.71,30.93"/>
    </edge>
    <edge id="Node2_5_NB" from="Node5" to="Node2" priority="-1">
        <lane id="Node2_5_NB_0" index="0" speed="13.89" length="24.47" shape="14.37,-9.53 15.52,14.90"/>
        <lane id="Node2_5_NB_1" index="1" speed="13.89" length="24.47" shape="11.17,-9.38 12.33,15.06"/>
        <lane id="Node2_5_NB_2" index="2" speed="13.89" length="24.47" shape="7.98,-9.23 9.13,15.21"/>
    </edge>
    <edge id="Node2_5_SB" from="Node2" to="Node5" priority="-1">
        <lane id="Node2_5_SB_0" index="0" speed="13.89" length="24.47" shape="-0.46,15.66 -1.61,-8.78"/>
        <lane id="Node2_5_SB_1" index="1" speed="13.89" length="24.47" shape="2.74,15.51 1.58,-8.93"/>
        <lane id="Node2_5_SB_2" index="2" speed="13.89" length="24.47" shape="5.93,15.36 4.78,-9.08"/>
    </edge>
    <edge id="Node2_7_NB" from="Node2" to="Node7" priority="-1">
        <lane id="Node2_7_NB_0" index="0" speed="13.89" length="21.85" shape="17.48,43.06 19.48,64.81"/>
        <lane id="Node2_7_NB_1" index="1" speed="13.89" length="21.85" shape="14.30,43.35 16.29,65.11"/>
        <lane id="Node2_7_NB_2" index="2" speed="13.89" length="21.85" shape="11.11,43.64 13.10,65.40"/>
    </edge>
    <edge id="Node2_7_SB" from="Node7" to="Node2" priority="-1">
        <lane id="Node2_7_SB_0" index="0" speed="13.89" length="21.85" shape="3.54,66.27 1.55,44.52"/>
        <lane id="Node2_7_SB_1" index="1" speed="13.89" length="21.85" shape="6.73,65.98 4.74,44.23"/>
        <lane id="Node2_7_SB_2" index="2" speed="13.89" length="21.85" shape="9.92,65.69 7.92,43.93"/>
    </edge>

    <tlLogic id="Node2" type="static" programID="0" offset="0">
        <phase duration="42" state="rrrrrGGGGgrrrrrGGGGg"/>
        <phase duration="3"  state="rrrrryyyyyrrrrryyyyy"/>
        <phase duration="42" state="GGGGgrrrrrGGGGgrrrrr"/>
        <phase duration="3"  state="yyyyyrrrrryyyyyrrrrr"/>
    </tlLogic>

    <junction id="Node1" type="priority" x="-54.00" y="29.33" incLanes="Node1_2_WB_0 Node1_2_WB_1 Node1_2_WB_2 E5_0 E5_1 E5_2" intLanes=":Node1_0_0 :Node1_0_1 :Node1_0_2 :Node1_3_0 :Node1_3_1 :Node1_3_2" shape="-45.31,38.93 -45.31,19.73 -64.42,21.62 -63.41,26.91 -61.53,31.24 -58.78,34.60 -55.16,37.01 -50.67,38.45">
        <request index="0" response="000000" foes="000000" cont="0"/>
        <request index="1" response="000000" foes="000000" cont="0"/>
        <request index="2" response="000000" foes="000000" cont="0"/>
        <request index="3" response="000000" foes="000000" cont="0"/>
        <request index="4" response="000000" foes="000000" cont="0"/>
        <request index="5" response="000000" foes="000000" cont="0"/>
    </junction>
    <junction id="Node2" type="traffic_light" x="8.19" y="29.33" incLanes="Node2_7_SB_0 Node2_7_SB_1 Node2_7_SB_2 Node2_3_WB_0 Node2_3_WB_1 Node2_3_WB_2 Node2_5_NB_0 Node2_5_NB_1 Node2_5_NB_2 Node1_2_EB_0 Node1_2_EB_1 Node1_2_EB_2" intLanes=":Node2_0_0 :Node2_1_0 :Node2_1_1 :Node2_1_2 :Node2_20_0 :Node2_5_0 :Node2_6_0 :Node2_6_1 :Node2_6_2 :Node2_21_0 :Node2_10_0 :Node2_11_0 :Node2_11_1 :Node2_11_2 :Node2_22_0 :Node2_15_0 :Node2_16_0 :Node2_16_1 :Node2_16_2 :Node2_23_0" shape="-0.04,44.66 19.08,42.91 19.32,40.70 19.80,39.93 20.53,39.37 21.50,39.04 22.71,38.93 22.71,19.73 19.71,19.19 18.63,18.50 17.84,17.55 17.34,16.33 17.12,14.83 -2.06,15.73 -2.40,17.95 -2.92,18.73 -3.67,19.29 -4.65,19.62 -5.87,19.73 -5.87,38.93 -2.87,39.57 -1.76,40.36 -0.92,41.48 -0.35,42.91">
        <request index="0"  response="00000000000111000000" foes="00000000000111000000" cont="0"/>
        <request index="1"  response="11111000001111000000" foes="11111100001111000000" cont="0"/>
        <request index="2"  response="11111000001111000000" foes="11111100001111000000" cont="0"/>
        <request index="3"  response="11111000001111000000" foes="11111100001111000000" cont="0"/>
        <request index="4"  response="11110011101111000000" foes="11110011101111000000" cont="1"/>
        <request index="5"  response="00000000000000000000" foes="00000011100000000000" cont="0"/>
        <request index="6"  response="00000100000000010000" foes="10000111100000011111" cont="0"/>
        <request index="7"  response="00000100000000010000" foes="10000111100000011111" cont="0"/>
        <request index="8"  response="00000100000000010000" foes="10000111100000011111" cont="0"/>
        <request index="9"  response="01110100000000010000" foes="01110111100000011110" cont="1"/>
        <request index="10" response="01110000000000000000" foes="01110000000000000000" cont="0"/>
        <request index="11" response="11110000001111100000" foes="11110000001111110000" cont="0"/>
        <request index="12" response="11110000001111100000" foes="11110000001111110000" cont="0"/>
        <request index="13" response="11110000001111100000" foes="11110000001111110000" cont="0"/>
        <request index="14" response="11110000001111001110" foes="11110000001111001110" cont="1"/>
        <request index="15" response="00000000000000000000" foes="00000000000000001110" cont="0"/>
        <request index="16" response="00000100000000010000" foes="00000111111000011110" cont="0"/>
        <request index="17" response="00000100000000010000" foes="00000111111000011110" cont="0"/>
        <request index="18" response="00000100000000010000" foes="00000111111000011110" cont="0"/>
        <request index="19" response="00000100000111010000" foes="00000111100111011110" cont="1"/>
    </junction>
    <junction id="Node3" type="priority" x="68.16" y="29.33" incLanes="-E2_0 -E2_1 -E2_2 Node2_3_EB_0 Node2_3_EB_1 Node2_3_EB_2" intLanes=":Node3_0_0 :Node3_0_1 :Node3_0_2 :Node3_3_0 :Node3_3_1 :Node3_3_2" shape="77.75,19.72 58.55,19.73 58.55,38.93 64.42,38.40 69.22,36.80 72.96,34.13 75.62,30.39 77.22,25.59">
        <request index="0" response="000000" foes="000000" cont="0"/>
        <request index="1" response="000000" foes="000000" cont="0"/>
        <request index="2" response="000000" foes="000000" cont="0"/>
        <request index="3" response="000000" foes="000000" cont="0"/>
        <request index="4" response="000000" foes="000000" cont="0"/>
        <request index="5" response="000000" foes="000000" cont="0"/>
    </junction>
    <junction id="Node4" type="priority" x="-59.21" y="-23.21" incLanes="-E5_0 -E5_1 -E5_2 E4_0 E4_1 E4_2" intLanes=":Node4_0_0 :Node4_0_1 :Node4_0_2 :Node4_3_0 :Node4_3_1 :Node4_3_2" shape="-67.72,-11.71 -48.62,-13.61 -48.62,-32.81 -55.03,-32.22 -60.16,-30.46 -63.99,-27.53 -66.53,-23.43 -67.77,-18.16">
        <request index="0" response="000000" foes="000000" cont="0"/>
        <request index="1" response="000000" foes="000000" cont="0"/>
        <request index="2" response="000000" foes="000000" cont="0"/>
        <request index="3" response="000000" foes="000000" cont="0"/>
        <request index="4" response="000000" foes="000000" cont="0"/>
        <request index="5" response="000000" foes="000000" cont="0"/>
    </junction>
    <junction id="Node5" type="priority" x="5.72" y="-23.21" incLanes="Node2_5_SB_0 Node2_5_SB_1 Node2_5_SB_2 E3_0 E3_1 E3_2 -E4_0 -E4_1 -E4_2" intLanes=":Node5_0_0 :Node5_1_0 :Node5_1_1 :Node5_3_0 :Node5_4_0 :Node5_4_1 :Node5_4_2 :Node5_7_0 :Node5_7_1 :Node5_7_2 :Node5_12_0 :Node5_12_1" shape="-3.21,-8.71 15.97,-9.61 16.31,-11.83 16.83,-12.61 17.58,-13.16 18.56,-13.49 19.78,-13.61 19.78,-32.81 -7.44,-32.81 -7.44,-13.61 -5.19,-13.06 -4.38,-12.38 -3.78,-11.43 -3.39,-10.20">
        <request index="0"  response="000001110000" foes="000001110000" cont="0"/>
        <request index="1"  response="111111110000" foes="111111110000" cont="0"/>
        <request index="2"  response="111111110000" foes="111111110000" cont="0"/>
        <request index="3"  response="000000000000" foes="000000000000" cont="0"/>
        <request index="4"  response="000000000000" foes="110000000111" cont="0"/>
        <request index="5"  response="000000000000" foes="110000000111" cont="0"/>
        <request index="6"  response="000000000000" foes="110000000111" cont="0"/>
        <request index="7"  response="000000000000" foes="000000000110" cont="0"/>
        <request index="8"  response="000000000000" foes="000000000110" cont="0"/>
        <request index="9"  response="000000000000" foes="000000000110" cont="0"/>
        <request index="10" response="000001110000" foes="000001110110" cont="1"/>
        <request index="11" response="000001110000" foes="000001110110" cont="1"/>
    </junction>
    <junction id="Node6" type="priority" x="68.13" y="-23.21" incLanes="E2_0 E2_1 E2_2 -E3_0 -E3_1 -E3_2" intLanes=":Node6_0_0 :Node6_0_1 :Node6_0_2 :Node6_3_0 :Node6_3_1 :Node6_3_2" shape="58.54,-13.61 77.74,-13.61 77.20,-19.48 75.60,-24.28 72.93,-28.01 69.20,-30.67 64.40,-32.27 58.54,-32.81">
        <request index="0" response="000000" foes="000000" cont="0"/>
        <request index="1" response="000000" foes="000000" cont="0"/>
        <request index="2" response="000000" foes="000000" cont="0"/>
        <request index="3" response="000000" foes="000000" cont="0"/>
        <request index="4" response="000000" foes="000000" cont="0"/>
        <request index="5" response="000000" foes="000000" cont="0"/>
    </junction>
    <junction id="Node7" type="dead_end" x="11.51" y="65.54" incLanes="Node2_7_NB_0 Node2_7_NB_1 Node2_7_NB_2" intLanes="" shape="11.51,65.54 21.07,64.67 11.51,65.54"/>

    <junction id=":Node2_20_0" type="internal" x="8.23" y="38.11" incLanes=":Node2_4_0 Node2_5_NB_0 Node2_5_NB_1 Node2_5_NB_2" intLanes=":Node2_6_0 :Node2_6_1 :Node2_6_2 :Node2_9_0 :Node2_10_0 :Node2_11_0 :Node2_11_1 :Node2_11_2 :Node2_16_0 :Node2_16_1 :Node2_16_2 :Node2_19_0"/>
    <junction id=":Node2_21_0" type="internal" x="17.57" y="30.22" incLanes=":Node2_9_0 Node1_2_EB_0 Node1_2_EB_1 Node1_2_EB_2" intLanes=":Node2_1_0 :Node2_1_1 :Node2_1_2 :Node2_4_0 :Node2_11_0 :Node2_11_1 :Node2_11_2 :Node2_14_0 :Node2_15_0 :Node2_16_0 :Node2_16_1 :Node2_16_2"/>
    <junction id=":Node2_22_0" type="internal" x="8.72" y="19.51" incLanes=":Node2_14_0 Node2_7_SB_0 Node2_7_SB_1 Node2_7_SB_2" intLanes=":Node2_0_0 :Node2_1_0 :Node2_1_1 :Node2_1_2 :Node2_6_0 :Node2_6_1 :Node2_6_2 :Node2_9_0 :Node2_16_0 :Node2_16_1 :Node2_16_2 :Node2_19_0"/>
    <junction id=":Node2_23_0" type="internal" x="-0.96" y="28.44" incLanes=":Node2_19_0 Node2_3_WB_0 Node2_3_WB_1 Node2_3_WB_2" intLanes=":Node2_1_0 :Node2_1_1 :Node2_1_2 :Node2_4_0 :Node2_5_0 :Node2_6_0 :Node2_6_1 :Node2_6_2 :Node2_11_0 :Node2_11_1 :Node2_11_2 :Node2_14_0"/>
    <junction id=":Node5_12_0" type="internal" x="-1.67" y="-24.10" incLanes=":Node5_10_0 E3_0 E3_1 E3_2" intLanes=":Node5_1_0 :Node5_1_1 :Node5_4_0 :Node5_4_1 :Node5_4_2"/>
    <junction id=":Node5_12_1" type="internal" x="-2.72" y="-24.10" incLanes=":Node5_10_1 E3_0 E3_1 E3_2" intLanes=":Node5_1_0 :Node5_1_1 :Node5_4_0 :Node5_4_1 :Node5_4_2"/>

    <connection from="-E2" to="Node2_3_WB" fromLane="0" toLane="0" via=":Node3_0_0" dir="l" state="M"/>
    <connection from="-E2" to="Node2_3_WB" fromLane="1" toLane="1" via=":Node3_0_1" dir="l" state="M"/>
    <connection from="-E2" to="Node2_3_WB" fromLane="2" toLane="2" via=":Node3_0_2" dir="l" state="M"/>
    <connection from="-E3" to="-E2" fromLane="0" toLane="0" via=":Node6_3_0" dir="l" state="M"/>
    <connection from="-E3" to="-E2" fromLane="1" toLane="1" via=":Node6_3_1" dir="l" state="M"/>
    <connection from="-E3" to="-E2" fromLane="2" toLane="2" via=":Node6_3_2" dir="l" state="M"/>
    <connection from="-E4" to="-E3" fromLane="0" toLane="0" via=":Node5_7_0" dir="s" state="M"/>
    <connection from="-E4" to="-E3" fromLane="1" toLane="1" via=":Node5_7_1" dir="s" state="M"/>
    <connection from="-E4" to="-E3" fromLane="2" toLane="2" via=":Node5_7_2" dir="s" state="M"/>
    <connection from="-E4" to="Node2_5_NB" fromLane="2" toLane="1" via=":Node5_10_0" dir="l" state="m"/>
    <connection from="-E4" to="Node2_5_NB" fromLane="2" toLane="2" via=":Node5_10_1" dir="l" state="m"/>
    <connection from="-E5" to="-E4" fromLane="0" toLane="0" via=":Node4_0_0" dir="l" state="M"/>
    <connection from="-E5" to="-E4" fromLane="1" toLane="1" via=":Node4_0_1" dir="l" state="M"/>
    <connection from="-E5" to="-E4" fromLane="2" toLane="2" via=":Node4_0_2" dir="l" state="M"/>
    <connection from="E2" to="E3" fromLane="0" toLane="0" via=":Node6_0_0" dir="r" state="M"/>
    <connection from="E2" to="E3" fromLane="1" toLane="1" via=":Node6_0_1" dir="r" state="M"/>
    <connection from="E2" to="E3" fromLane="2" toLane="2" via=":Node6_0_2" dir="r" state="M"/>
    <connection from="E3" to="Node2_5_NB" fromLane="0" toLane="0" via=":Node5_3_0" dir="r" state="M"/>
    <connection from="E3" to="E4" fromLane="0" toLane="0" via=":Node5_4_0" dir="s" state="M"/>
    <connection from="E3" to="E4" fromLane="1" toLane="1" via=":Node5_4_1" dir="s" state="M"/>
    <connection from="E3" to="E4" fromLane="2" toLane="2" via=":Node5_4_2" dir="s" state="M"/>
    <connection from="E4" to="E5" fromLane="0" toLane="0" via=":Node4_3_0" dir="r" state="M"/>
    <connection from="E4" to="E5" fromLane="1" toLane="1" via=":Node4_3_1" dir="r" state="M"/>
    <connection from="E4" to="E5" fromLane="2" toLane="2" via=":Node4_3_2" dir="r" state="M"/>
    <connection from="E5" to="Node1_2_EB" fromLane="0" toLane="0" via=":Node1_3_0" dir="r" state="M"/>
    <connection from="E5" to="Node1_2_EB" fromLane="1" toLane="1" via=":Node1_3_1" dir="r" state="M"/>
    <connection from="E5" to="Node1_2_EB" fromLane="2" toLane="2" via=":Node1_3_2" dir="r" state="M"/>
    <connection from="Node1_2_EB" to="Node2_5_SB" fromLane="0" toLane="0" via=":Node2_15_0" tl="Node2" linkIndex="15" dir="r" state="O"/>
    <connection from="Node1_2_EB" to="Node2_3_EB" fromLane="0" toLane="0" via=":Node2_16_0" tl="Node2" linkIndex="16" dir="s" state="O"/>
    <connection from="Node1_2_EB" to="Node2_3_EB" fromLane="1" toLane="1" via=":Node2_16_1" tl="Node2" linkIndex="17" dir="s" state="O"/>
    <connection from="Node1_2_EB" to="Node2_3_EB" fromLane="2" toLane="2" via=":Node2_16_2" tl="Node2" linkIndex="18" dir="s" state="O"/>
    <connection from="Node1_2_EB" to="Node2_7_NB" fromLane="2" toLane="2" via=":Node2_19_0" tl="Node2" linkIndex="19" dir="l" state="o"/>